<?xml version="1.0" encoding="UTF-8"?>

<!-- generated on Thứ bảy, 14 Tháng 5 Năm 2022 01:07:01 +07 by Eclipse SUMO netedit Version 1.4.0
<configuration xmlns:xsi="http://www.w3.org/2001/XMLSchema-instance" xsi:noNamespaceSchemaLocation="http://sumo.dlr.de/xsd/netconvertConfiguration.xsd">

    <output>
        <output-file value="/home/dung/omnetpp-6.0/workspace/VANETTutorials/simulations/exercise/ex1.net.xml"/>
    </output>

    <processing>
        <offset.disable-normalization value="true"/>
    </processing>

    <junctions>
        <no-internal-links value="false"/>
        <no-turnarounds value="true"/>
    </junctions>

    <netedit>
        <route-files value="/home/dung/omnetpp-6.0/workspace/VANETTutorials/simulations/exercise/ex1.rou.xml"/>
    </netedit>

    <report>
        <aggregate-warnings value="5"/>
    </report>

</configuration>
-->

<net version="1.3" junctionCornerDetail="5" limitTurnSpeed="5.50" xmlns:xsi="http://www.w3.org/2001/XMLSchema-instance" xsi:noNamespaceSchemaLocation="http://sumo.dlr.de/xsd/net_file.xsd">

    <location netOffset="0.00,0.00" convBoundary="0.00,-300.00,300.00,0.00" origBoundary="10000000000.00,10000000000.00,-10000000000.00,-10000000000.00" projParameter="!"/>

    <edge id=":gneJ0_0" function="internal">
        <lane id=":gneJ0_0_0" index="0" speed="6.08" length="7.74" shape="3.20,1.60 1.10,1.30 -0.40,0.40 -1.30,-1.10 -1.60,-3.20"/>
    </edge>
    <edge id=":gneJ0_1" function="internal">
        <lane id=":gneJ0_1_0" index="0" speed="3.90" length="2.58" shape="1.60,-3.20 1.70,-2.50 2.00,-2.00 2.50,-1.70 3.20,-1.60"/>
    </edge>
    <edge id=":gneJ0_w0" function="walkingarea">
        <lane id=":gneJ0_w0_0" index="0" allow="pedestrian" speed="1.00" length="4.26" width="3.20" shape="3.20,3.20 3.20,0.00 3.20,0.00 3.20,-3.20 3.20,-3.20 0.00,-3.20 0.00,-3.20 -3.20,-3.20 1.24,3.02 -0.36,2.49 -1.60,1.60 -2.49,0.36 -3.02,-1.24"/>
    </edge>
    <edge id=":gneJ1_0" function="internal">
        <lane id=":gneJ1_0_0" index="0" speed="13.89" length="14.40" shape="107.20,1.60 92.80,1.60"/>
    </edge>
    <edge id=":gneJ1_1" function="internal">
        <lane id=":gneJ1_1_0" index="0" speed="8.00" length="5.93" shape="107.20,1.60 103.35,1.05 101.60,-0.00"/>
    </edge>
    <edge id=":gneJ1_6" function="internal">
        <lane id=":gneJ1_6_0" index="0" speed="8.00" length="8.26" shape="101.60,-0.00 100.60,-0.60 98.95,-3.35 98.40,-7.20"/>
    </edge>
    <edge id=":gneJ1_2" function="internal">
        <lane id=":gneJ1_2_0" index="0" speed="6.51" length="9.03" shape="101.60,-7.20 101.95,-4.75 103.00,-3.00 104.75,-1.95 107.20,-1.60"/>
    </edge>
    <edge id=":gneJ1_3" function="internal">
        <lane id=":gneJ1_3_0" index="0" speed="8.00" length="14.19" shape="101.60,-7.20 101.05,-3.35 99.40,-0.60 96.65,1.05 92.80,1.60"/>
    </edge>
    <edge id=":gneJ1_4" function="internal">
        <lane id=":gneJ1_4_0" index="0" speed="6.51" length="9.03" shape="92.80,-1.60 95.25,-1.95 97.00,-3.00 98.05,-4.75 98.40,-7.20"/>
    </edge>
    <edge id=":gneJ1_5" function="internal">
        <lane id=":gneJ1_5_0" index="0" speed="13.89" length="14.40" shape="92.80,-1.60 107.20,-1.60"/>
    </edge>
    <edge id=":gneJ1_w0" function="walkingarea">
        <lane id=":gneJ1_w0_0" index="0" allow="pedestrian" speed="1.00" length="10.02" width="3.20" shape="107.20,3.20 107.20,0.00 107.20,0.00 107.20,-3.20 103.20,-7.20 100.00,-7.20 100.00,-7.20 96.80,-7.20 92.80,-3.20 92.80,0.00 92.80,0.00 92.80,3.20"/>
    </edge>
    <edge id=":gneJ10_0" function="internal">
        <lane id=":gneJ10_0_0" index="0" speed="13.89" length="14.40" shape="-1.60,-192.80 -1.60,-207.20"/>
    </edge>
    <edge id=":gneJ10_1" function="internal">
        <lane id=":gneJ10_1_0" index="0" speed="8.00" length="5.93" shape="-1.60,-192.80 -1.05,-196.65 0.00,-198.40"/>
    </edge>
    <edge id=":gneJ10_6" function="internal">
        <lane id=":gneJ10_6_0" index="0" speed="8.00" length="8.26" shape="0.00,-198.40 0.60,-199.40 3.35,-201.05 7.20,-201.60"/>
    </edge>
    <edge id=":gneJ10_2" function="internal">
        <lane id=":gneJ10_2_0" index="0" speed="6.51" length="9.03" shape="7.20,-198.40 4.75,-198.05 3.00,-197.00 1.95,-195.25 1.60,-192.80"/>
    </edge>
    <edge id=":gneJ10_3" function="internal">
        <lane id=":gneJ10_3_0" index="0" speed="8.00" length="14.19" shape="7.20,-198.40 3.35,-198.95 0.60,-200.60 -1.05,-203.35 -1.60,-207.20"/>
    </edge>
    <edge id=":gneJ10_4" function="internal">
        <lane id=":gneJ10_4_0" index="0" speed="6.51" length="9.03" shape="1.60,-207.20 1.95,-204.75 3.00,-203.00 4.75,-201.95 7.20,-201.60"/>
    </edge>
    <edge id=":gneJ10_5" function="internal">
        <lane id=":gneJ10_5_0" index="0" speed="13.89" length="14.40" shape="1.60,-207.20 1.60,-192.80"/>
    </edge>
    <edge id=":gneJ10_w0" function="walkingarea">
        <lane id=":gneJ10_w0_0" index="0" allow="pedestrian" speed="1.00" length="10.02" width="3.20" shape="-3.20,-192.80 0.00,-192.80 0.00,-192.80 3.20,-192.80 7.20,-196.80 7.20,-200.00 7.20,-200.00 7.20,-203.20 3.20,-207.20 -0.00,-207.20 0.00,-207.20 -3.20,-207.20"/>
    </edge>
    <edge id=":gneJ11_0" function="internal">
        <lane id=":gneJ11_0_0" index="0" speed="13.89" length="14.40" shape="-1.60,-92.80 -1.60,-107.20"/>
    </edge>
    <edge id=":gneJ11_1" function="internal">
        <lane id=":gneJ11_1_0" index="0" disallow="pedestrian" speed="7.58" length="12.62" shape="-1.60,-92.80 -1.17,-96.65 0.10,-99.40 2.23,-101.05 5.20,-101.60"/>
    </edge>
    <edge id=":gneJ11_2" function="internal">
        <lane id=":gneJ11_2_0" index="0" speed="5.99" length="7.49" shape="5.20,-98.40 3.62,-98.05 2.50,-97.00 1.82,-95.25 1.60,-92.80"/>
    </edge>
    <edge id=":gneJ11_3" function="internal">
        <lane id=":gneJ11_3_0" index="0" speed="7.58" length="12.62" shape="5.20,-98.40 2.23,-98.95 0.10,-100.60 -1.17,-103.35 -1.60,-107.20"/>
    </edge>
    <edge id=":gneJ11_4" function="internal">
        <lane id=":gneJ11_4_0" index="0" disallow="pedestrian" speed="5.99" length="7.49" shape="1.60,-107.20 1.83,-104.75 2.50,-103.00 3.63,-101.95 5.20,-101.60"/>
    </edge>
    <edge id=":gneJ11_5" function="internal">
        <lane id=":gneJ11_5_0" index="0" speed="13.89" length="14.40" shape="1.60,-107.20 1.60,-92.80"/>
    </edge>
    <edge id=":gneJ11_w0" function="walkingarea">
        <lane id=":gneJ11_w0_0" index="0" allow="pedestrian" speed="1.00" length="9.85" width="3.20" shape="5.20,-103.20 5.20,-105.20 3.20,-107.20 0.00,-107.20 0.00,-107.20 -3.20,-107.20 -3.20,-92.80 0.00,-92.80 0.00,-92.80 3.20,-92.80 5.20,-94.80 5.20,-96.80"/>
    </edge>
    <edge id=":gneJ12_0" function="internal">
        <lane id=":gneJ12_0_0" index="0" disallow="pedestrian" speed="5.99" length="7.49" shape="98.40,-92.80 98.17,-95.25 97.50,-97.00 96.38,-98.05 94.80,-98.40"/>
    </edge>
    <edge id=":gneJ12_1" function="internal">
        <lane id=":gneJ12_1_0" index="0" speed="13.89" length="14.40" shape="98.40,-92.80 98.40,-107.20"/>
    </edge>
    <edge id=":gneJ12_2" function="internal">
        <lane id=":gneJ12_2_0" index="0" disallow="pedestrian" speed="7.39" length="11.94" shape="98.40,-92.80 98.98,-95.74 100.53,-98.59 102.70,-100.75 105.20,-101.60"/>
    </edge>
    <edge id=":gneJ12_3" function="internal">
        <lane id=":gneJ12_3_0" index="0" speed="5.99" length="7.49" shape="105.20,-98.40 103.62,-98.05 102.50,-97.00 101.82,-95.25 101.60,-92.80"/>
    </edge>
    <edge id=":gneJ12_4" function="internal">
        <lane id=":gneJ12_4_0" index="0" disallow="pedestrian" speed="13.89" length="10.40" shape="105.20,-98.40 94.80,-98.40"/>
    </edge>
    <edge id=":gneJ12_5" function="internal">
        <lane id=":gneJ12_5_0" index="0" speed="7.39" length="4.74" shape="105.20,-98.40 102.70,-99.25 101.21,-100.73"/>
    </edge>
    <edge id=":gneJ12_12" function="internal">
        <lane id=":gneJ12_12_0" index="0" speed="7.39" length="7.20" shape="101.21,-100.73 100.52,-101.41 98.98,-104.26 98.40,-107.20"/>
    </edge>
    <edge id=":gneJ12_6" function="internal">
        <lane id=":gneJ12_6_0" index="0" disallow="pedestrian" speed="5.99" length="7.49" shape="101.60,-107.20 101.83,-104.75 102.50,-103.00 103.62,-101.95 105.20,-101.60"/>
    </edge>
    <edge id=":gneJ12_7" function="internal">
        <lane id=":gneJ12_7_0" index="0" speed="13.89" length="14.40" shape="101.60,-107.20 101.60,-92.80"/>
    </edge>
    <edge id=":gneJ12_8" function="internal">
        <lane id=":gneJ12_8_0" index="0" disallow="pedestrian" speed="7.39" length="11.94" shape="101.60,-107.20 101.02,-104.26 99.47,-101.41 97.30,-99.25 94.80,-98.40"/>
    </edge>
    <edge id=":gneJ12_9" function="internal">
        <lane id=":gneJ12_9_0" index="0" speed="5.99" length="7.49" shape="94.80,-101.60 96.38,-101.95 97.50,-103.00 98.18,-104.75 98.40,-107.20"/>
    </edge>
    <edge id=":gneJ12_10" function="internal">
        <lane id=":gneJ12_10_0" index="0" disallow="pedestrian" speed="13.89" length="10.40" shape="94.80,-101.60 105.20,-101.60"/>
    </edge>
    <edge id=":gneJ12_11" function="internal">
        <lane id=":gneJ12_11_0" index="0" speed="7.39" length="4.74" shape="94.80,-101.60 97.30,-100.75 98.79,-99.27"/>
    </edge>
    <edge id=":gneJ12_13" function="internal">
        <lane id=":gneJ12_13_0" index="0" speed="7.39" length="7.20" shape="98.79,-99.27 99.48,-98.59 101.02,-95.74 101.60,-92.80"/>
    </edge>
    <edge id=":gneJ12_c0" function="crossing" crossingEdges="-gneE13 -gneE12">
        <lane id=":gneJ12_c0_0" index="0" allow="pedestrian" speed="1.00" length="6.40" width="4.00" shape="103.20,-100.00 96.80,-100.00"/>
    </edge>
    <edge id=":gneJ12_c1" function="crossing" crossingEdges="gneE12 gneE13">
        <lane id=":gneJ12_c1_0" index="0" allow="pedestrian" speed="1.00" length="6.40" width="4.00" shape="96.80,-100.00 103.20,-100.00"/>
    </edge>
    <edge id=":gneJ12_w0" function="walkingarea">
        <lane id=":gneJ12_w0_0" index="0" allow="pedestrian" speed="1.00" length="6.31" width="3.20" shape="94.80,-96.80 94.80,-94.80 96.80,-92.80 100.00,-92.80 100.00,-92.80 103.20,-92.80 105.20,-94.80 105.20,-96.80"/>
    </edge>
    <edge id=":gneJ12_w1" function="walkingarea">
        <lane id=":gneJ12_w1_0" index="0" allow="pedestrian" speed="1.00" length="6.31" width="3.20" shape="105.20,-103.20 105.20,-105.20 103.20,-107.20 100.00,-107.20 100.00,-107.20 96.80,-107.20 94.80,-105.20 94.80,-103.20"/>
    </edge>
    <edge id=":gneJ12_w2" function="walkingarea">
        <lane id=":gneJ12_w2_0" index="0" allow="pedestrian" speed="1.00" length="0.10" width="4.00" shape="96.80,-102.00 96.80,-98.00 96.80,-102.00 96.80,-98.00"/>
    </edge>
    <edge id=":gneJ12_w3" function="walkingarea">
        <lane id=":gneJ12_w3_0" index="0" allow="pedestrian" speed="1.00" length="0.10" width="4.00" shape="103.20,-98.00 103.20,-102.00 103.20,-98.00 103.20,-102.00"/>
    </edge>
    <edge id=":gneJ13_0" function="internal">
        <lane id=":gneJ13_0_0" index="0" disallow="pedestrian" speed="5.99" length="7.49" shape="198.40,-92.80 198.18,-95.25 197.50,-97.00 196.38,-98.05 194.80,-98.40"/>
    </edge>
    <edge id=":gneJ13_1" function="internal">
        <lane id=":gneJ13_1_0" index="0" speed="13.89" length="14.40" shape="198.40,-92.80 198.40,-107.20"/>
    </edge>
    <edge id=":gneJ13_2" function="internal">
        <lane id=":gneJ13_2_0" index="0" disallow="pedestrian" speed="7.39" length="11.94" shape="198.40,-92.80 198.98,-95.74 200.53,-98.59 202.70,-100.75 205.20,-101.60"/>
    </edge>
    <edge id=":gneJ13_3" function="internal">
        <lane id=":gneJ13_3_0" index="0" speed="5.99" length="7.49" shape="205.20,-98.40 203.62,-98.05 202.50,-97.00 201.82,-95.25 201.60,-92.80"/>
    </edge>
    <edge id=":gneJ13_4" function="internal">
        <lane id=":gneJ13_4_0" index="0" disallow="pedestrian" speed="13.89" length="10.40" shape="205.20,-98.40 194.80,-98.40"/>
    </edge>
    <edge id=":gneJ13_5" function="internal">
        <lane id=":gneJ13_5_0" index="0" speed="7.39" length="4.74" shape="205.20,-98.40 202.70,-99.25 201.21,-100.73"/>
    </edge>
    <edge id=":gneJ13_12" function="internal">
        <lane id=":gneJ13_12_0" index="0" speed="7.39" length="7.20" shape="201.21,-100.73 200.53,-101.41 198.98,-104.26 198.40,-107.20"/>
    </edge>
    <edge id=":gneJ13_6" function="internal">
        <lane id=":gneJ13_6_0" index="0" disallow="pedestrian" speed="5.99" length="7.49" shape="201.60,-107.20 201.82,-104.75 202.50,-103.00 203.62,-101.95 205.20,-101.60"/>
    </edge>
    <edge id=":gneJ13_7" function="internal">
        <lane id=":gneJ13_7_0" index="0" speed="13.89" length="14.40" shape="201.60,-107.20 201.60,-92.80"/>
    </edge>
    <edge id=":gneJ13_8" function="internal">
        <lane id=":gneJ13_8_0" index="0" disallow="pedestrian" speed="7.39" length="11.94" shape="201.60,-107.20 201.02,-104.26 199.47,-101.41 197.30,-99.25 194.80,-98.40"/>
    </edge>
    <edge id=":gneJ13_9" function="internal">
        <lane id=":gneJ13_9_0" index="0" speed="5.99" length="7.49" shape="194.80,-101.60 196.38,-101.95 197.50,-103.00 198.18,-104.75 198.40,-107.20"/>
    </edge>
    <edge id=":gneJ13_10" function="internal">
        <lane id=":gneJ13_10_0" index="0" disallow="pedestrian" speed="13.89" length="10.40" shape="194.80,-101.60 205.20,-101.60"/>
    </edge>
    <edge id=":gneJ13_11" function="internal">
        <lane id=":gneJ13_11_0" index="0" speed="7.39" length="4.74" shape="194.80,-101.60 197.30,-100.75 198.79,-99.27"/>
    </edge>
    <edge id=":gneJ13_13" function="internal">
        <lane id=":gneJ13_13_0" index="0" speed="7.39" length="7.20" shape="198.79,-99.27 199.47,-98.59 201.02,-95.74 201.60,-92.80"/>
    </edge>
    <edge id=":gneJ13_c0" function="crossing" crossingEdges="-gneE14 -gneE13">
        <lane id=":gneJ13_c0_0" index="0" allow="pedestrian" speed="1.00" length="6.40" width="4.00" shape="203.20,-100.00 196.80,-100.00"/>
    </edge>
    <edge id=":gneJ13_c1" function="crossing" crossingEdges="gneE13 gneE14">
        <lane id=":gneJ13_c1_0" index="0" allow="pedestrian" speed="1.00" length="6.40" width="4.00" shape="196.80,-100.00 203.20,-100.00"/>
    </edge>
    <edge id=":gneJ13_w0" function="walkingarea">
        <lane id=":gneJ13_w0_0" index="0" allow="pedestrian" speed="1.00" length="6.31" width="3.20" shape="194.80,-96.80 194.80,-94.80 196.80,-92.80 200.00,-92.80 200.00,-92.80 203.20,-92.80 205.20,-94.80 205.20,-96.80"/>
    </edge>
    <edge id=":gneJ13_w1" function="walkingarea">
        <lane id=":gneJ13_w1_0" index="0" allow="pedestrian" speed="1.00" length="6.31" width="3.20" shape="205.20,-103.20 205.20,-105.20 203.20,-107.20 200.00,-107.20 200.00,-107.20 196.80,-107.20 194.80,-105.20 194.80,-103.20"/>
    </edge>
    <edge id=":gneJ13_w2" function="walkingarea">
        <lane id=":gneJ13_w2_0" index="0" allow="pedestrian" speed="1.00" length="0.10" width="4.00" shape="196.80,-102.00 196.80,-98.00 196.80,-102.00 196.80,-98.00"/>
    </edge>
    <edge id=":gneJ13_w3" function="walkingarea">
        <lane id=":gneJ13_w3_0" index="0" allow="pedestrian" speed="1.00" length="0.10" width="4.00" shape="203.20,-98.00 203.20,-102.00 203.20,-98.00 203.20,-102.00"/>
    </edge>
    <edge id=":gneJ14_0" function="internal">
        <lane id=":gneJ14_0_0" index="0" speed="6.51" length="9.03" shape="98.40,-192.80 98.05,-195.25 97.00,-197.00 95.25,-198.05 92.80,-198.40"/>
    </edge>
    <edge id=":gneJ14_1" function="internal">
        <lane id=":gneJ14_1_0" index="0" speed="13.89" length="14.40" shape="98.40,-192.80 98.40,-207.20"/>
    </edge>
    <edge id=":gneJ14_2" function="internal">
        <lane id=":gneJ14_2_0" index="0" speed="8.00" length="5.93" shape="98.40,-192.80 98.95,-196.65 100.00,-198.40"/>
    </edge>
    <edge id=":gneJ14_12" function="internal">
        <lane id=":gneJ14_12_0" index="0" speed="8.00" length="8.26" shape="100.00,-198.40 100.60,-199.40 103.35,-201.05 107.20,-201.60"/>
    </edge>
    <edge id=":gneJ14_3" function="internal">
        <lane id=":gneJ14_3_0" index="0" speed="6.51" length="9.03" shape="107.20,-198.40 104.75,-198.05 103.00,-197.00 101.95,-195.25 101.60,-192.80"/>
    </edge>
    <edge id=":gneJ14_4" function="internal">
        <lane id=":gneJ14_4_0" index="0" speed="13.89" length="14.40" shape="107.20,-198.40 92.80,-198.40"/>
    </edge>
    <edge id=":gneJ14_5" function="internal">
        <lane id=":gneJ14_5_0" index="0" speed="8.00" length="14.19" shape="107.20,-198.40 103.35,-198.95 100.60,-200.60 98.95,-203.35 98.40,-207.20"/>
    </edge>
    <edge id=":gneJ14_6" function="internal">
        <lane id=":gneJ14_6_0" index="0" speed="6.51" length="9.03" shape="101.60,-207.20 101.95,-204.75 103.00,-203.00 104.75,-201.95 107.20,-201.60"/>
    </edge>
    <edge id=":gneJ14_7" function="internal">
        <lane id=":gneJ14_7_0" index="0" speed="13.89" length="14.40" shape="101.60,-207.20 101.60,-192.80"/>
    </edge>
    <edge id=":gneJ14_8" function="internal">
        <lane id=":gneJ14_8_0" index="0" speed="8.00" length="5.93" shape="101.60,-207.20 101.05,-203.35 100.00,-201.60"/>
    </edge>
    <edge id=":gneJ14_13" function="internal">
        <lane id=":gneJ14_13_0" index="0" speed="8.00" length="8.26" shape="100.00,-201.60 99.40,-200.60 96.65,-198.95 92.80,-198.40"/>
    </edge>
    <edge id=":gneJ14_9" function="internal">
        <lane id=":gneJ14_9_0" index="0" speed="6.51" length="9.03" shape="92.80,-201.60 95.25,-201.95 97.00,-203.00 98.05,-204.75 98.40,-207.20"/>
    </edge>
    <edge id=":gneJ14_10" function="internal">
        <lane id=":gneJ14_10_0" index="0" speed="13.89" length="14.40" shape="92.80,-201.60 107.20,-201.60"/>
    </edge>
    <edge id=":gneJ14_11" function="internal">
        <lane id=":gneJ14_11_0" index="0" speed="8.00" length="14.19" shape="92.80,-201.60 96.65,-201.05 99.40,-199.40 101.05,-196.65 101.60,-192.80"/>
    </edge>
    <edge id=":gneJ14_w0" function="walkingarea">
        <lane id=":gneJ14_w0_0" index="0" allow="pedestrian" speed="1.00" length="10.51" width="3.20" shape="96.80,-192.80 100.00,-192.80 100.00,-192.80 103.20,-192.80 107.20,-196.80 107.20,-200.00 107.20,-200.00 107.20,-203.20 103.20,-207.20 100.00,-207.20 100.00,-207.20 96.80,-207.20 92.80,-203.20 92.80,-200.00 92.80,-200.00 92.80,-196.80 96.69,-194.02 96.36,-195.02 95.80,-195.80 95.02,-196.36 94.02,-196.69"/>
    </edge>
    <edge id=":gneJ15_0" function="internal">
        <lane id=":gneJ15_0_0" index="0" speed="6.51" length="9.03" shape="198.40,-192.80 198.05,-195.25 197.00,-197.00 195.25,-198.05 192.80,-198.40"/>
    </edge>
    <edge id=":gneJ15_1" function="internal">
        <lane id=":gneJ15_1_0" index="0" speed="13.89" length="14.40" shape="198.40,-192.80 198.40,-207.20"/>
    </edge>
    <edge id=":gneJ15_2" function="internal">
        <lane id=":gneJ15_2_0" index="0" speed="8.00" length="5.93" shape="198.40,-192.80 198.95,-196.65 200.00,-198.40"/>
    </edge>
    <edge id=":gneJ15_12" function="internal">
        <lane id=":gneJ15_12_0" index="0" speed="8.00" length="8.26" shape="200.00,-198.40 200.60,-199.40 203.35,-201.05 207.20,-201.60"/>
    </edge>
    <edge id=":gneJ15_3" function="internal">
        <lane id=":gneJ15_3_0" index="0" speed="6.51" length="9.03" shape="207.20,-198.40 204.75,-198.05 203.00,-197.00 201.95,-195.25 201.60,-192.80"/>
    </edge>
    <edge id=":gneJ15_4" function="internal">
        <lane id=":gneJ15_4_0" index="0" speed="13.89" length="14.40" shape="207.20,-198.40 192.80,-198.40"/>
    </edge>
    <edge id=":gneJ15_5" function="internal">
        <lane id=":gneJ15_5_0" index="0" speed="8.00" length="14.19" shape="207.20,-198.40 203.35,-198.95 200.60,-200.60 198.95,-203.35 198.40,-207.20"/>
    </edge>
    <edge id=":gneJ15_6" function="internal">
        <lane id=":gneJ15_6_0" index="0" speed="6.51" length="9.03" shape="201.60,-207.20 201.95,-204.75 203.00,-203.00 204.75,-201.95 207.20,-201.60"/>
    </edge>
    <edge id=":gneJ15_7" function="internal">
        <lane id=":gneJ15_7_0" index="0" speed="13.89" length="14.40" shape="201.60,-207.20 201.60,-192.80"/>
    </edge>
    <edge id=":gneJ15_8" function="internal">
        <lane id=":gneJ15_8_0" index="0" speed="8.00" length="5.93" shape="201.60,-207.20 201.05,-203.35 200.00,-201.60"/>
    </edge>
    <edge id=":gneJ15_13" function="internal">
        <lane id=":gneJ15_13_0" index="0" speed="8.00" length="8.26" shape="200.00,-201.60 199.40,-200.60 196.65,-198.95 192.80,-198.40"/>
    </edge>
    <edge id=":gneJ15_9" function="internal">
        <lane id=":gneJ15_9_0" index="0" speed="6.51" length="9.03" shape="192.80,-201.60 195.25,-201.95 197.00,-203.00 198.05,-204.75 198.40,-207.20"/>
    </edge>
    <edge id=":gneJ15_10" function="internal">
        <lane id=":gneJ15_10_0" index="0" speed="13.89" length="14.40" shape="192.80,-201.60 207.20,-201.60"/>
    </edge>
    <edge id=":gneJ15_11" function="internal">
        <lane id=":gneJ15_11_0" index="0" speed="8.00" length="14.19" shape="192.80,-201.60 196.65,-201.05 199.40,-199.40 201.05,-196.65 201.60,-192.80"/>
    </edge>
    <edge id=":gneJ15_w0" function="walkingarea">
        <lane id=":gneJ15_w0_0" index="0" allow="pedestrian" speed="1.00" length="10.51" width="3.20" shape="196.80,-192.80 200.00,-192.80 200.00,-192.80 203.20,-192.80 207.20,-196.80 207.20,-200.00 207.20,-200.00 207.20,-203.20 203.20,-207.20 200.00,-207.20 200.00,-207.20 196.80,-207.20 192.80,-203.20 192.80,-200.00 192.80,-200.00 192.80,-196.80 196.69,-194.02 196.36,-195.02 195.80,-195.80 195.02,-196.36 194.02,-196.69"/>
    </edge>
    <edge id=":gneJ2_0" function="internal">
        <lane id=":gneJ2_0_0" index="0" speed="13.89" length="14.40" shape="207.20,1.60 192.80,1.60"/>
    </edge>
    <edge id=":gneJ2_1" function="internal">
        <lane id=":gneJ2_1_0" index="0" speed="8.00" length="5.93" shape="207.20,1.60 203.35,1.05 201.60,-0.00"/>
    </edge>
    <edge id=":gneJ2_6" function="internal">
        <lane id=":gneJ2_6_0" index="0" speed="8.00" length="8.26" shape="201.60,-0.00 200.60,-0.60 198.95,-3.35 198.40,-7.20"/>
    </edge>
    <edge id=":gneJ2_2" function="internal">
        <lane id=":gneJ2_2_0" index="0" speed="6.51" length="9.03" shape="201.60,-7.20 201.95,-4.75 203.00,-3.00 204.75,-1.95 207.20,-1.60"/>
    </edge>
    <edge id=":gneJ2_3" function="internal">
        <lane id=":gneJ2_3_0" index="0" speed="8.00" length="14.19" shape="201.60,-7.20 201.05,-3.35 199.40,-0.60 196.65,1.05 192.80,1.60"/>
    </edge>
    <edge id=":gneJ2_4" function="internal">
        <lane id=":gneJ2_4_0" index="0" speed="6.51" length="9.03" shape="192.80,-1.60 195.25,-1.95 197.00,-3.00 198.05,-4.75 198.40,-7.20"/>
    </edge>
    <edge id=":gneJ2_5" function="internal">
        <lane id=":gneJ2_5_0" index="0" speed="13.89" length="14.40" shape="192.80,-1.60 207.20,-1.60"/>
    </edge>
    <edge id=":gneJ2_w0" function="walkingarea">
        <lane id=":gneJ2_w0_0" index="0" allow="pedestrian" speed="1.00" length="10.02" width="3.20" shape="207.20,3.20 207.20,-0.00 207.20,0.00 207.20,-3.20 203.20,-7.20 200.00,-7.20 200.00,-7.20 196.80,-7.20 192.80,-3.20 192.80,0.00 192.80,0.00 192.80,3.20"/>
    </edge>
    <edge id=":gneJ3_0" function="internal">
        <lane id=":gneJ3_0_0" index="0" speed="6.08" length="7.74" shape="301.60,-3.20 301.30,-1.10 300.40,0.40 298.90,1.30 296.80,1.60"/>
    </edge>
    <edge id=":gneJ3_1" function="internal">
        <lane id=":gneJ3_1_0" index="0" speed="3.90" length="2.58" shape="296.80,-1.60 297.50,-1.70 298.00,-2.00 298.30,-2.50 298.40,-3.20"/>
    </edge>
    <edge id=":gneJ3_w0" function="walkingarea">
        <lane id=":gneJ3_w0_0" index="0" allow="pedestrian" speed="1.00" length="4.26" width="3.20" shape="303.20,-3.20 300.00,-3.20 300.00,-3.20 296.80,-3.20 296.80,-3.20 296.80,0.00 296.80,-0.00 296.80,3.20 303.02,-1.24 302.49,0.36 301.60,1.60 300.36,2.49 298.76,3.02"/>
    </edge>
    <edge id=":gneJ4_0" function="internal">
        <lane id=":gneJ4_0_0" index="0" disallow="pedestrian" speed="5.99" length="7.49" shape="298.40,-92.80 298.18,-95.25 297.50,-97.00 296.38,-98.05 294.80,-98.40"/>
    </edge>
    <edge id=":gneJ4_1" function="internal">
        <lane id=":gneJ4_1_0" index="0" speed="13.89" length="14.40" shape="298.40,-92.80 298.40,-107.20"/>
    </edge>
    <edge id=":gneJ4_2" function="internal">
        <lane id=":gneJ4_2_0" index="0" speed="13.89" length="14.40" shape="301.60,-107.20 301.60,-92.80"/>
    </edge>
    <edge id=":gneJ4_3" function="internal">
        <lane id=":gneJ4_3_0" index="0" disallow="pedestrian" speed="7.58" length="12.62" shape="301.60,-107.20 301.18,-103.35 299.90,-100.60 297.77,-98.95 294.80,-98.40"/>
    </edge>
    <edge id=":gneJ4_4" function="internal">
        <lane id=":gneJ4_4_0" index="0" speed="5.99" length="7.49" shape="294.80,-101.60 296.37,-101.95 297.50,-103.00 298.17,-104.75 298.40,-107.20"/>
    </edge>
    <edge id=":gneJ4_5" function="internal">
        <lane id=":gneJ4_5_0" index="0" speed="7.58" length="12.62" shape="294.80,-101.60 297.78,-101.05 299.90,-99.40 301.18,-96.65 301.60,-92.80"/>
    </edge>
    <edge id=":gneJ4_c0" function="crossing" crossingEdges="-gneE14 gneE14">
        <lane id=":gneJ4_c0_0" index="0" allow="pedestrian" speed="1.00" length="6.40" width="4.00" shape="296.80,-96.80 296.80,-103.20"/>
    </edge>
    <edge id=":gneJ4_w0" function="walkingarea">
        <lane id=":gneJ4_w0_0" index="0" allow="pedestrian" speed="1.00" length="8.54" width="4.00" shape="298.80,-96.80 294.80,-96.80 294.80,-94.80 296.80,-92.80 300.00,-92.80 300.00,-92.80 303.20,-92.80 303.20,-107.20 300.00,-107.20 300.00,-107.20 296.80,-107.20 294.80,-105.20 294.80,-103.20 298.80,-103.20"/>
    </edge>
    <edge id=":gneJ5_0" function="internal">
        <lane id=":gneJ5_0_0" index="0" speed="6.51" length="9.03" shape="298.40,-192.80 298.05,-195.25 297.00,-197.00 295.25,-198.05 292.80,-198.40"/>
    </edge>
    <edge id=":gneJ5_1" function="internal">
        <lane id=":gneJ5_1_0" index="0" speed="13.89" length="14.40" shape="298.40,-192.80 298.40,-207.20"/>
    </edge>
    <edge id=":gneJ5_2" function="internal">
        <lane id=":gneJ5_2_0" index="0" speed="13.89" length="14.40" shape="301.60,-207.20 301.60,-192.80"/>
    </edge>
    <edge id=":gneJ5_3" function="internal">
        <lane id=":gneJ5_3_0" index="0" speed="8.00" length="5.93" shape="301.60,-207.20 301.05,-203.35 300.00,-201.60"/>
    </edge>
    <edge id=":gneJ5_6" function="internal">
        <lane id=":gneJ5_6_0" index="0" speed="8.00" length="8.26" shape="300.00,-201.60 299.40,-200.60 296.65,-198.95 292.80,-198.40"/>
    </edge>
    <edge id=":gneJ5_4" function="internal">
        <lane id=":gneJ5_4_0" index="0" speed="6.51" length="9.03" shape="292.80,-201.60 295.25,-201.95 297.00,-203.00 298.05,-204.75 298.40,-207.20"/>
    </edge>
    <edge id=":gneJ5_5" function="internal">
        <lane id=":gneJ5_5_0" index="0" speed="8.00" length="14.19" shape="292.80,-201.60 296.65,-201.05 299.40,-199.40 301.05,-196.65 301.60,-192.80"/>
    </edge>
    <edge id=":gneJ5_w0" function="walkingarea">
        <lane id=":gneJ5_w0_0" index="0" allow="pedestrian" speed="1.00" length="10.02" width="3.20" shape="296.80,-192.80 300.00,-192.80 300.00,-192.80 303.20,-192.80 303.20,-207.20 300.00,-207.20 300.00,-207.20 296.80,-207.20 292.80,-203.20 292.80,-200.00 292.80,-200.00 292.80,-196.80 296.69,-194.02 296.36,-195.02 295.80,-195.80 295.02,-196.36 294.02,-196.69"/>
    </edge>
    <edge id=":gneJ6_0" function="internal">
        <lane id=":gneJ6_0_0" index="0" speed="3.90" length="2.58" shape="298.40,-296.80 298.30,-297.50 298.00,-298.00 297.50,-298.30 296.80,-298.40"/>
    </edge>
    <edge id=":gneJ6_1" function="internal">
        <lane id=":gneJ6_1_0" index="0" speed="6.08" length="7.74" shape="296.80,-301.60 298.90,-301.30 300.40,-300.40 301.30,-298.90 301.60,-296.80"/>
    </edge>
    <edge id=":gneJ6_w0" function="walkingarea">
        <lane id=":gneJ6_w0_0" index="0" allow="pedestrian" speed="1.00" length="4.26" width="3.20" shape="296.80,-296.80 300.00,-296.80 300.00,-296.80 303.20,-296.80 296.80,-303.20 296.80,-300.00 296.80,-300.00 296.80,-296.80"/>
    </edge>
    <edge id=":gneJ7_0" function="internal">
        <lane id=":gneJ7_0_0" index="0" speed="6.51" length="9.03" shape="198.40,-292.80 198.05,-295.25 197.00,-297.00 195.25,-298.05 192.80,-298.40"/>
    </edge>
    <edge id=":gneJ7_1" function="internal">
        <lane id=":gneJ7_1_0" index="0" speed="8.00" length="14.19" shape="198.40,-292.80 198.95,-296.65 200.60,-299.40 203.35,-301.05 207.20,-301.60"/>
    </edge>
    <edge id=":gneJ7_2" function="internal">
        <lane id=":gneJ7_2_0" index="0" speed="6.51" length="9.03" shape="207.20,-298.40 204.75,-298.05 203.00,-297.00 201.95,-295.25 201.60,-292.80"/>
    </edge>
    <edge id=":gneJ7_3" function="internal">
        <lane id=":gneJ7_3_0" index="0" speed="13.89" length="14.40" shape="207.20,-298.40 192.80,-298.40"/>
    </edge>
    <edge id=":gneJ7_4" function="internal">
        <lane id=":gneJ7_4_0" index="0" speed="13.89" length="14.40" shape="192.80,-301.60 207.20,-301.60"/>
    </edge>
    <edge id=":gneJ7_5" function="internal">
        <lane id=":gneJ7_5_0" index="0" speed="8.00" length="5.93" shape="192.80,-301.60 196.65,-301.05 198.40,-300.00"/>
    </edge>
    <edge id=":gneJ7_6" function="internal">
        <lane id=":gneJ7_6_0" index="0" speed="8.00" length="8.26" shape="198.40,-300.00 199.40,-299.40 201.05,-296.65 201.60,-292.80"/>
    </edge>
    <edge id=":gneJ7_w0" function="walkingarea">
        <lane id=":gneJ7_w0_0" index="0" allow="pedestrian" speed="1.00" length="10.02" width="3.20" shape="196.80,-292.80 200.00,-292.80 200.00,-292.80 203.20,-292.80 207.20,-296.80 207.20,-300.00 207.20,-300.00 207.20,-303.20 192.80,-303.20 192.80,-300.00 192.80,-300.00 192.80,-296.80 196.69,-294.02 196.36,-295.02 195.80,-295.80 195.02,-296.36 194.02,-296.69"/>
    </edge>
    <edge id=":gneJ8_0" function="internal">