<?xml version="1.0" encoding="UTF-8"?>

<!-- generated on Thứ bảy, 14 Tháng 5 Năm 2022 00:51:24 +07 by Eclipse SUMO GUI Version 1.4.0
-->

<configuration xmlns:xsi="http://www.w3.org/2001/XMLSchema-instance" xsi:noNamespaceSchemaLocation="http://sumo.dlr.de/xsd/sumoConfiguration.xsd">

    <input>
        <net-file value="ex1.net.xml"/>
        <route-files value="ex1.rou.xml"/>
    </input>
    
    <gui_only>
        <registry-viewport value="true"/>
    </gui_only>

</configuration>
