<?xml version="1.0" encoding="UTF-8"?>

<!-- generated on Thứ bảy, 14 Tháng 5 Năm 2022 01:06:53 +07 by Eclipse SUMO netedit Version 1.4.0
<configuration xmlns:xsi="http://www.w3.org/2001/XMLSchema-instance" xsi:noNamespaceSchemaLocation="http://sumo.dlr.de/xsd/netconvertConfiguration.xsd">

    <processing>
        <offset.disable-normalization value="true"/>
    </processing>

    <junctions>
        <no-internal-links value="false"/>
        <no-turnarounds value="true"/>
    </junctions>

    <netedit>
        <route-files value="/home/dung/omnetpp-6.0/workspace/VANETTutorials/simulations/exercise/ex1.rou.xml"/>
    </netedit>

    <report>
        <aggregate-warnings value="5"/>
    </report>

</configuration>
-->

<routes xmlns:xsi="http://www.w3.org/2001/XMLSchema-instance" xsi:noNamespaceSchemaLocation="http://sumo.dlr.de/xsd/routes_file.xsd">
    <route edges="-gneE18 -gneE0 -gneE11 -gneE10 -gneE9 -gneE8 -gneE20 gneE16 gneE23 -gneE6 -gneE5 -gneE4 -gneE3 -gneE2 gneE21" color="yellow" id="route_0"/>
    <route edges="-gneE15 -gneE9 -gneE8 -gneE7 -gneE23 gneE17 gneE5 gneE6 gneE7 gneE8 gneE9" color="yellow" id="route_1"/>
    <route edges="gneE12 gneE13 gneE14 -gneE14 -gneE13 -gneE12" color="yellow" id="route_2"/>
    <person id="person_0" depart="0.00">
        <walk route="route_2" arrivalPos="0.00"/>
    </person>
    <person id="person_1" depart="0.00">
        <walk route="route_2" arrivalPos="0.00"/>
    </person>
    <person id="person_10" depart="0.00">
        <walk route="route_2" arrivalPos="0.00"/>
    </person>
    <person id="person_11" depart="0.00">
        <walk route="route_2" arrivalPos="0.00"/>
    </person>
    <person id="person_12" depart="0.00">
        <walk route="route_2" arrivalPos="0.00"/>
    </person>
    <person id="person_13" depart="0.00">
        <walk route="route_2" arrivalPos="0.00"/>
    </person>
    <person id="person_14" depart="0.00">
        <walk route="route_2" arrivalPos="0.00"/>
    </person>
    <person id="person_15" depart="0.00">
        <walk route="route_2" arrivalPos="0.00"/>
    </person>
    <person id="person_16" depart="0.00">
        <walk route="route_2" arrivalPos="0.00"/>
    </person>
    <person id="person_17" depart="0.00">
        <walk route="route_2" arrivalPos="0.00"/>
    </person>
    <person id="person_18" depart="0.00">
        <walk route="route_2" arrivalPos="0.00"/>
    </person>
    <person id="person_19" depart="0.00">
        <walk route="route_2" arrivalPos="0.00"/>
    </person>
    <person id="person_2" depart="0.00">
        <walk route="route_2" arrivalPos="0.00"/>
    </person>
    <person id="person_20" depart="0.00">
        <walk route="route_2" arrivalPos="0.00"/>
    </person>
    <person id="person_21" depart="0.00">
        <walk route="route_2" arrivalPos="0.00"/>
    </person>
    <person id="person_22" depart="0.00">
        <walk route="route_2" arrivalPos="0.00"/>
    </person>
    <person id="person_23" depart="0.00">
        <walk route="route_2" arrivalPos="0.00"/>
    </person>
    <person id="person_24" depart="0.00">
        <walk route="route_2" arrivalPos="0.00"/>
    </person>
    <person id="person_25" depart="0.00">
        <walk route="route_2" arrivalPos="0.00"/>
    </person>
    <person id="person_26" depart="0.00">
        <walk route="route_2" arrivalPos="0.00"/>
    </person>
    <person id="person_27" depart="0.00">
        <walk route="route_2" arrivalPos="0.00"/>
    </person>
    <person id="person_28" depart="0.00">
        <walk route="route_2" arrivalPos="0.00"/>
    </person>
    <person id="person_29" depart="0.00">
        <walk route="route_2" arrivalPos="0.00"/>
    </person>
    <person id="person_3" depart="0.00">
        <walk route="route_2" arrivalPos="0.00"/>
    </person>
    <person id="person_4" depart="0.00">
        <walk route="route_2" arrivalPos="0.00"/>
    </person>
    <person id="person_5" depart="0.00">
        <walk route="route_2" arrivalPos="0.00"/>
    </person>
    <person id="person_6" depart="0.00">
        <walk route="route_2" arrivalPos="0.00"/>
    </person>
    <person id="person_7" depart="0.00">
        <walk route="route_2" arrivalPos="0.00"/>
    </person>
    <person id="person_8" depart="0.00">
        <walk route="route_2" arrivalPos="0.00"/>
    </person>
    <person id="person_9" depart="0.00">
        <walk route="route_2" arrivalPos="0.00"/>
    </person>
    <vehicle id="vehicle_0" depart="0.00" route="route_0"/>
    <vehicle id="vehicle_1" depart="0.00" route="route_0"/>
    <vehicle id="vehicle_10" depart="0.00" route="route_1"/>
    <vehicle id="vehicle_11" depart="0.00" route="route_1"/>
    <vehicle id="vehicle_12" depart="0.00" route="route_1"/>
    <vehicle id="vehicle_13" depart="0.00" route="route_1"/>
    <vehicle id="vehicle_14" depart="0.00" route="route_1"/>
    <vehicle id="vehicle_15" depart="0.00" route="route_1"/>
    <vehicle id="vehicle_16" depart="0.00" route="route_1"/>
    <vehicle id="vehicle_17" depart="0.00" route="route_1"/>
    <vehicle id="vehicle_18" depart="0.00" route="route_1"/>
    <vehicle id="vehicle_19" depart="0.00" route="route_1"/>
    <vehicle id="vehicle_2" depart="0.00" route="route_0"/>
    <vehicle id="vehicle_3" depart="0.00" route="route_0"/>
    <vehicle id="vehicle_4" depart="0.00" route="route_0"/>
    <vehicle id="vehicle_5" depart="0.00" route="route_0"/>
    <vehicle id="vehicle_6" depart="0.00" route="route_0"/>
    <vehicle id="vehicle_7" depart="0.00" route="route_0"/>
    <vehicle id="vehicle_8" depart="0.00" route="route_1"/>
    <vehicle id="vehicle_9" depart="0.00" route="route_1"/>
</routes>
