<?xml version="1.0" encoding="UTF-8"?>

<!-- generated on Thứ bảy, 14 Tháng 5 Năm 2022 10:54:03 +07 by Eclipse SUMO netedit Version 1.4.0
<configuration xmlns:xsi="http://www.w3.org/2001/XMLSchema-instance" xsi:noNamespaceSchemaLocation="http://sumo.dlr.de/xsd/netconvertConfiguration.xsd">

    <output>
        <output-file value="/home/dung/omnetpp-6.0/workspace/VANETTutorials/simulations/exercise/test.net.xml"/>
    </output>

    <processing>
        <offset.disable-normalization value="true"/>
    </processing>

    <junctions>
        <no-internal-links value="false"/>
        <no-turnarounds value="true"/>
    </junctions>

    <report>
        <aggregate-warnings value="5"/>
    </report>

</configuration>
-->

<net version="1.3" junctionCornerDetail="5" limitTurnSpeed="5.50" xmlns:xsi="http://www.w3.org/2001/XMLSchema-instance" xsi:noNamespaceSchemaLocation="http://sumo.dlr.de/xsd/net_file.xsd">

    <location netOffset="0.00,0.00" convBoundary="0.00,100.00,200.00,100.00" origBoundary="10000000000.00,10000000000.00,-10000000000.00,-10000000000.00" projParameter="!"/>

    <edge id=":gneJ0_w0" function="walkingarea">
        <lane id=":gneJ0_w0_0" index="0" allow="pedestrian" speed="1.00" length="8.40" width="2.00" shape="0.00,96.80 0.00,94.80 0.00,105.20 0.00,103.20"/>
    </edge>
    <edge id=":gneJ1_0" function="internal">
        <lane id=":gneJ1_0_0" index="0" disallow="pedestrian" speed="13.89" length="0.10" shape="100.00,101.60 100.00,101.60"/>
    </edge>
    <edge id=":gneJ1_1" function="internal">
        <lane id=":gneJ1_1_0" index="0" disallow="pedestrian" speed="13.89" length="0.10" shape="100.00,98.40 100.00,98.40"/>
    </edge>
    <edge id=":gneJ1_c0" function="crossing" crossingEdges="gneE1 -gneE1">
        <lane id=":gneJ1_c0_0" index="0" allow="pedestrian" speed="1.00" length="6.40" width="4.00" shape="98.00,96.80 98.00,103.20"/>
    </edge>
    <edge id=":gneJ1_c1" function="crossing" crossingEdges="-gneE0 gneE0">
        <lane id=":gneJ1_c1_0" index="0" allow="pedestrian" speed="1.00" length="6.40" width="4.00" shape="102.00,103.20 102.00,96.80"/>
    </edge>
    <edge id=":gneJ1_w0" function="walkingarea">
        <lane id=":gneJ1_w0_0" index="0" allow="pedestrian" speed="1.00" length="2.59" width="4.00" shape="104.00,103.20 100.00,103.20 100.00,105.20 100.00,105.20 100.00,103.20 96.00,103.20"/>
    </edge>
    <edge id=":gneJ1_w1" function="walkingarea">
        <lane id=":gneJ1_w1_0" index="0" allow="pedestrian" speed="1.00" length="2.59" width="4.00" shape="96.00,96.80 100.00,96.80 100.00,94.80 100.00,94.80 100.00,96.80 104.00,96.80"/>
    </edge>
    <edge id=":gneJ2_w0" function="walkingarea">
        <lane id=":gneJ2_w0_0" index="0" allow="pedestrian" speed="1.00" length="8.40" width="2.00" shape="200.00,103.20 200.00,105.20 200.00,94.80 200.00,96.80"/>
    </edge>

    <edge id="-gneE0" from="gneJ1" to="gneJ0" priority="-1">
        <lane id="-gneE0_0" index="0" allow="pedestrian" speed="13.89" length="100.00" width="2.00" shape="100.00,104.20 0.00,104.20"/>
        <lane id="-gneE0_1" index="1" disallow="pedestrian" speed="13.89" length="100.00" shape="100.00,101.60 0.00,101.60"/>
    </edge>
    <edge id="-gneE1" from="gneJ2" to="gneJ1" priority="-1">
        <lane id="-gneE1_0" index="0" allow="pedestrian" speed="13.89" length="100.00" width="2.00" shape="200.00,104.20 100.00,104.20"/>
        <lane id="-gneE1_1" index="1" disallow="pedestrian" speed="13.89" length="100.00" shape="200.00,101.60 100.00,101.60"/>
    </edge>
    <edge id="gneE0" from="gneJ0" to="gneJ1" priority="-1">
        <lane id="gneE0_0" index="0" allow="pedestrian" speed="13.89" length="100.00" width="2.00" shape="0.00,95.80 100.00,95.80"/>
        <lane id="gneE0_1" index="1" disallow="pedestrian" speed="13.89" length="100.00" shape="0.00,98.40 100.00,98.40"/>
    </edge>
    <edge id="gneE1" from="gneJ1" to="gneJ2" priority="-1">
        <lane id="gneE1_0" index="0" allow="pedestrian" speed="13.89" length="100.00" width="2.00" shape="100.00,95.80 200.00,95.80"/>
        <lane id="gneE1_1" index="1" disallow="pedestrian" speed="13.89" length="100.00" shape="100.00,98.40 200.00,98.40"/>
    </edge>

    <junction id="gneJ0" type="dead_end" x="0.00" y="100.00" incLanes="-gneE0_0 -gneE0_1" intLanes="" shape="0.00,100.00 0.00,105.20 0.00,100.00"/>
    <junction id="gneJ1" type="priority" x="100.00" y="100.00" incLanes="-gneE1_0 -gneE1_1 gneE0_0 gneE0_1 :gneJ1_w1_0 :gneJ1_w0_0" intLanes=":gneJ1_0_0 :gneJ1_1_0 :gneJ1_c0_0 :gneJ1_c1_0" shape="100.00,105.20 100.00,94.80 100.00,105.20">
        <request index="0" response="0000" foes="1100" cont="0"/>
        <request index="1" response="0000" foes="1100" cont="0"/>
        <request index="2" response="0011" foes="0011" cont="0"/>
        <request index="3" response="0011" foes="0011" cont="0"/>
    </junction>
    <junction id="gneJ2" type="dead_end" x="200.00" y="100.00" incLanes="gneE1_0 gneE1_1" intLanes="" shape="200.00,100.00 200.00,94.80 200.00,100.00"/>

    <connection from="-gneE1" to="-gneE0" fromLane="1" toLane="1" via=":gneJ1_0_0" dir="s" state="M"/>
    <connection from="gneE0" to="gneE1" fromLane="1" toLane="1" via=":gneJ1_1_0" dir="s" state="M"/>

    <connection from=":gneJ1_0" to="-gneE0" fromLane="0" toLane="1" dir="s" state="M"/>
    <connection from=":gneJ1_1" to="gneE1" fromLane="0" toLane="1" dir="s" state="M"/>

    <connection from=":gneJ0_w0" to="gneE0" fromLane="0" toLane="0" dir="s" state="M"/>
    <connection from="-gneE0" to=":gneJ0_w0" fromLane="0" toLane="0" dir="s" state="M"/>
    <connection from=":gneJ1_c0" to=":gneJ1_w0" fromLane="0" toLane="0" dir="s" state="M"/>
    <connection from=":gneJ1_c1" to=":gneJ1_w1" fromLane="0" toLane="0" dir="s" state="M"/>
    <connection from=":gneJ1_w0" to=":gneJ1_c1" fromLane="0" toLane="0" dir="s" state="m"/>
    <connection from=":gneJ1_w0" to="-gneE0" fromLane="0" toLane="0" dir="s" state="M"/>
    <connection from="-gneE1" to=":gneJ1_w0" fromLane="0" toLane="0" dir="s" state="M"/>
    <connection from=":gneJ1_w1" to=":gneJ1_c0" fromLane="0" toLane="0" dir="s" state="m"/>
    <connection from=":gneJ1_w1" to="gneE1" fromLane="0" toLane="0" dir="s" state="M"/>
    <connection from="gneE0" to=":gneJ1_w1" fromLane="0" toLane="0" dir="s" state="M"/>
    <connection from=":gneJ2_w0" to="-gneE1" fromLane="0" toLane="0" dir="s" state="M"/>
    <connection from="gneE1" to=":gneJ2_w0" fromLane="0" toLane="0" dir="s" state="M"/>
</net>
