<?xml version="1.0" encoding="UTF-8"?>

<!-- generated on Thứ bảy, 14 Tháng 5 Năm 2022 10:54:07 +07 by Eclipse SUMO netedit Version 1.4.0
<configuration xmlns:xsi="http://www.w3.org/2001/XMLSchema-instance" xsi:noNamespaceSchemaLocation="http://sumo.dlr.de/xsd/netconvertConfiguration.xsd">

    <output>
        <output-file value="/home/dung/omnetpp-6.0/workspace/VANETTutorials/simulations/exercise/test.net.xml"/>
    </output>

    <processing>
        <offset.disable-normalization value="true"/>
    </processing>

    <junctions>
        <no-internal-links value="false"/>
        <no-turnarounds value="true"/>
    </junctions>

    <netedit>
        <route-files value="/home/dung/omnetpp-6.0/workspace/VANETTutorials/simulations/exercise/test.rou.xml"/>
    </netedit>

    <report>
        <aggregate-warnings value="5"/>
    </report>

</configuration>
-->

<routes xmlns:xsi="http://www.w3.org/2001/XMLSchema-instance" xsi:noNamespaceSchemaLocation="http://sumo.dlr.de/xsd/routes_file.xsd">
    <route edges="gneE0 -gneE0" color="yellow" id="route_0"/>
    <person id="person_0" depart="0.00">
        <walk route="route_0" arrivalPos="0.00"/>
    </person>
    <person id="person_1" depart="0.00">
        <walk route="route_0" arrivalPos="0.00"/>
    </person>
    <person id="person_2" depart="0.00">
        <walk route="route_0" arrivalPos="0.00"/>
    </person>
    <person id="person_3" depart="0.00">
        <walk route="route_0" arrivalPos="0.00"/>
    </person>
    <person id="person_4" depart="0.00">
        <walk route="route_0" arrivalPos="0.00"/>
    </person>
    <person id="person_5" depart="0.00">
        <walk route="route_0" arrivalPos="0.00"/>
    </person>
    <person id="person_6" depart="0.00">
        <walk route="route_0" arrivalPos="0.00"/>
    </person>
    <person id="person_7" depart="0.00">
        <walk route="route_0" arrivalPos="0.00"/>
    </person>
    <person id="person_8" depart="0.00">
        <walk route="route_0" arrivalPos="0.00"/>
    </person>
</routes>
