<?xml version="1.0" encoding="UTF-8"?>

<!-- generated on Thứ bảy, 18 Tháng 6 Năm 2022 00:06:50 +07 by Eclipse SUMO netedit Version 1.4.0
<configuration xmlns:xsi="http://www.w3.org/2001/XMLSchema-instance" xsi:noNamespaceSchemaLocation="http://sumo.dlr.de/xsd/netconvertConfiguration.xsd">

    <input>
        <sumo-net-file value="/home/dung/omnetpp-6.0/workspace/VANETTutorials/simulations/ex3/vd012.net.xml"/>
    </input>

    <output>
        <output-file value="/home/dung/omnetpp-6.0/workspace/VANETTutorials/simulations/ex3/vd012.net.xml"/>
    </output>

    <processing>
        <geometry.min-radius.fix.railways value="false"/>
        <geometry.max-grade.fix value="false"/>
        <offset.disable-normalization value="true"/>
        <lefthand value="false"/>
    </processing>

    <junctions>
        <no-internal-links value="false"/>
        <no-turnarounds value="true"/>
        <junctions.corner-detail value="5"/>
        <junctions.limit-turn-speed value="5.5"/>
        <rectangular-lane-cut value="false"/>
    </junctions>

    <pedestrian>
        <walkingareas value="false"/>
    </pedestrian>

    <netedit>
        <route-files value="/home/dung/omnetpp-6.0/workspace/VANETTutorials/simulations/ex3/vd012.rou.xml"/>
    </netedit>

    <report>
        <aggregate-warnings value="5"/>
    </report>

</configuration>
-->

<routes xmlns:xsi="http://www.w3.org/2001/XMLSchema-instance" xsi:noNamespaceSchemaLocation="http://sumo.dlr.de/xsd/routes_file.xsd">
    <route edges="E0 E1 E2 E3 E4 E5 E6 E7 E23 E24 E25 E26 E27 E28 E29 E30 E31 E32 E33 E34 E35 E36 E37 E38 E39 E40 E41 E42 E43 E44 E45 E46 E47 E48 E49 E50 E51 E52 E53 E54 E55 -E137 -E136 -E135 -E134 -E133 -E132 -E131 E112 E113 E114 E115 E116 -E223 -E222 -E210 -E209 -E208 -E207 -E206 -E205 -E204 -E203 -E202 E83 E84 E85 E86 E90 E91 E92" color="yellow" id="route_0"/>
    <vehicle id="vehicle_0" depart="0.00" route="route_0"/>
    <vehicle id="vehicle_1" depart="0.00" route="route_0"/>
    <vehicle id="vehicle_2" depart="0.00" route="route_0"/>
    <vehicle id="vehicle_3" depart="0.00" route="route_0"/>
    <vehicle id="vehicle_4" depart="0.00" route="route_0"/>
</routes>
