<?xml version="1.0" encoding="UTF-8"?>

<!-- generated on Chủ nhật, 12 Tháng 6 Năm 2022 10:20:14 +07 by Eclipse SUMO netedit Version 1.4.0
<configuration xmlns:xsi="http://www.w3.org/2001/XMLSchema-instance" xsi:noNamespaceSchemaLocation="http://sumo.dlr.de/xsd/netconvertConfiguration.xsd">

    <input>
        <sumo-net-file value="/home/dung/omnetpp-6.0/workspace/VANETTutorials/simulations/ex3/vd012.net.xml"/>
    </input>

    <output>
        <output-file value="/home/dung/omnetpp-6.0/workspace/VANETTutorials/simulations/ex3/vd012.net.xml"/>
    </output>

    <processing>
        <geometry.min-radius.fix.railways value="false"/>
        <geometry.max-grade.fix value="false"/>
        <offset.disable-normalization value="true"/>
        <lefthand value="false"/>
    </processing>

    <junctions>
        <no-internal-links value="false"/>
        <no-turnarounds value="true"/>
        <junctions.corner-detail value="5"/>
        <junctions.limit-turn-speed value="5.5"/>
        <rectangular-lane-cut value="false"/>
    </junctions>

    <pedestrian>
        <walkingareas value="false"/>
    </pedestrian>

    <netedit>
        <route-files value="/home/dung/omnetpp-6.0/workspace/VANETTutorials/simulations/ex3/vd012.rou.xml"/>
    </netedit>

    <report>
        <aggregate-warnings value="5"/>
    </report>

</configuration>
-->

<routes xmlns:xsi="http://www.w3.org/2001/XMLSchema-instance" xsi:noNamespaceSchemaLocation="http://sumo.dlr.de/xsd/routes_file.xsd">
    <route edges="E0 E1 -E229 -E228 E230 E231 E232 E233 E234 E235 E236 E237 E238 E239 E240 E241 E242 E243 E244 E245 E246 E247 E248 E249 E250 E251 E252 E253 E254 E255 E256 E257 E258 E259 E260 E261 E262 E263 E264 E265 E266 E267 E268 E269 E270 E271 E272 E273 E274 E275 E276 E277 E278 E279 E280 E281 E282 E283 E284 E285 E286 E287 E288 E289 E290 E291 E292 E293 E294 E295 E296 E297 E298" color="yellow" id="route_0"/>
    <vehicle id="vehicle_0" depart="0.00" route="route_0"/>
	<personFlow begin="0" id="1" impatience="0.4" end="4099" period="1">
		<walk from="-E228" to="E228"/>
	</personFlow>
	<personFlow begin="0" id="2" impatience="0.6" end="4025" period="1">
		<walk from="-E229" to="E229"/>
	</personFlow>
	<personFlow begin="0" id="3" impatience="0.7" end="3613" period="1">
		<walk from="-E230" to="E230"/>
	</personFlow>
	<personFlow begin="0" id="4" impatience="0.8" end="3676" period="1">
		<walk from="-E231" to="E231"/>
	</personFlow>
	<personFlow begin="0" id="5" impatience="0.4" end="3945" period="1">
		<walk from="-E232" to="E232"/>
	</personFlow>
	<personFlow begin="0" id="6" impatience="0.8" end="3810" period="1">
		<walk from="-E233" to="E233"/>
	</personFlow>
	<personFlow begin="0" id="7" impatience="0.3" end="3725" period="1">
		<walk from="-E234" to="E234"/>
	</personFlow>
	<personFlow begin="0" id="8" impatience="0.5" end="4001" period="1">
		<walk from="-E235" to="E235"/>
	</personFlow>
</routes>
